data_Ni3O4.cif_2x4x2

_audit_creation_date               2023-06-26
_audit_creation_method             'generated by MedeA 3.6.1'

_chemical_formula_sum              'Ni3O4'

_symmetry_space_group_name_H-M     'P1'
_symmetry_Int_Tables_number        1

_cell_length_a                     9.78368
_cell_length_b                     11.41229
_cell_length_c                     9.78380
_cell_angle_alpha                  90.00
_cell_angle_beta                   106.96
_cell_angle_gamma                  90.00
_cell_volume                       1044.91
_cell_formula_units_Z              16

loop_
_atom_site_label
_atom_site_symmetry_multiplicity
_atom_site_Wyckoff_symbol
_atom_site_fract_x
_atom_site_fract_y
_atom_site_fract_z
_atom_site_occupancy
Ni1      1 a   0.00000   0.00000   0.00000 1.0
Ni2      1 a   0.25000   0.00000   0.25000 1.0
Ni3      1 a   0.00000   0.12500   0.25000 1.0
O1       1 a   0.10666   0.00000   0.35667 1.0
O2       1 a   0.39334   0.00000   0.14333 1.0
O3       1 a   0.11844   0.12500   0.13157 1.0
O4       1 a   0.38156   0.12500   0.36843 1.0
Ni4      1 a   0.00000   0.00000   0.50000 1.0
Ni5      1 a   0.25000   0.00000   0.75000 1.0
Ni6      1 a   0.00000   0.12500   0.75000 1.0
O5       1 a   0.10666   0.00000   0.85667 1.0
O6       1 a   0.39334   0.00000   0.64333 1.0
O7       1 a   0.11844   0.12500   0.63157 1.0
O8       1 a   0.38156   0.12500   0.86843 1.0
Ni7      1 a   0.00000   0.25000   0.00000 1.0
Ni8      1 a   0.25000   0.25000   0.25000 1.0
Ni9      1 a   0.00000   0.37500   0.25000 1.0
O9       1 a   0.10666   0.25000   0.35667 1.0
O10      1 a   0.39334   0.25000   0.14333 1.0
O11      1 a   0.11844   0.37500   0.13157 1.0
O12      1 a   0.38156   0.37500   0.36843 1.0
Ni10     1 a   0.00000   0.25000   0.50000 1.0
Ni11     1 a   0.25000   0.25000   0.75000 1.0
Ni12     1 a   0.00000   0.37500   0.75000 1.0
O13      1 a   0.10666   0.25000   0.85667 1.0
O14      1 a   0.39334   0.25000   0.64333 1.0
O15      1 a   0.11844   0.37500   0.63157 1.0
O16      1 a   0.38156   0.37500   0.86843 1.0
Ni13     1 a   0.00000   0.50000   0.00000 1.0
Ni14     1 a   0.25000   0.50000   0.25000 1.0
Ni15     1 a   0.00000   0.62500   0.25000 1.0
O17      1 a   0.10666   0.50000   0.35667 1.0
O18      1 a   0.39334   0.50000   0.14333 1.0
O19      1 a   0.11844   0.62500   0.13157 1.0
O20      1 a   0.38156   0.62500   0.36843 1.0
Ni16     1 a   0.00000   0.50000   0.50000 1.0
Ni17     1 a   0.25000   0.50000   0.75000 1.0
Ni18     1 a   0.00000   0.62500   0.75000 1.0
O21      1 a   0.10666   0.50000   0.85667 1.0
O22      1 a   0.39334   0.50000   0.64333 1.0
O23      1 a   0.11844   0.62500   0.63157 1.0
O24      1 a   0.38156   0.62500   0.86843 1.0
Ni19     1 a   0.00000   0.75000   0.00000 1.0
Ni20     1 a   0.25000   0.75000   0.25000 1.0
Ni21     1 a   0.00000   0.87500   0.25000 1.0
O25      1 a   0.10666   0.75000   0.35667 1.0
O26      1 a   0.39334   0.75000   0.14333 1.0
O27      1 a   0.11844   0.87500   0.13157 1.0
O28      1 a   0.38156   0.87500   0.36843 1.0
Ni22     1 a   0.00000   0.75000   0.50000 1.0
Ni23     1 a   0.25000   0.75000   0.75000 1.0
Ni24     1 a   0.00000   0.87500   0.75000 1.0
O29      1 a   0.10666   0.75000   0.85667 1.0
O30      1 a   0.39334   0.75000   0.64333 1.0
O31      1 a   0.11844   0.87500   0.63157 1.0
O32      1 a   0.38156   0.87500   0.86843 1.0
Ni25     1 a   0.50000   0.00000   0.00000 1.0
Ni26     1 a   0.75000   0.00000   0.25000 1.0
Ni27     1 a   0.50000   0.12500   0.25000 1.0
O33      1 a   0.60666   0.00000   0.35667 1.0
O34      1 a   0.89334   0.00000   0.14333 1.0
O35      1 a   0.61844   0.12500   0.13157 1.0
O36      1 a   0.88156   0.12500   0.36843 1.0
Ni28     1 a   0.50000   0.00000   0.50000 1.0
Ni29     1 a   0.75000   0.00000   0.75000 1.0
Ni30     1 a   0.50000   0.12500   0.75000 1.0
O37      1 a   0.60666   0.00000   0.85667 1.0
O38      1 a   0.89334   0.00000   0.64333 1.0
O39      1 a   0.61844   0.12500   0.63157 1.0
O40      1 a   0.88156   0.12500   0.86843 1.0
Ni31     1 a   0.50000   0.25000   0.00000 1.0
Ni32     1 a   0.75000   0.25000   0.25000 1.0
Ni33     1 a   0.50000   0.37500   0.25000 1.0
O41      1 a   0.60666   0.25000   0.35667 1.0
O42      1 a   0.89334   0.25000   0.14333 1.0
O43      1 a   0.61844   0.37500   0.13157 1.0
O44      1 a   0.88156   0.37500   0.36843 1.0
Ni34     1 a   0.50000   0.25000   0.50000 1.0
Ni35     1 a   0.75000   0.25000   0.75000 1.0
Ni36     1 a   0.50000   0.37500   0.75000 1.0
O45      1 a   0.60666   0.25000   0.85667 1.0
O46      1 a   0.89334   0.25000   0.64333 1.0
O47      1 a   0.61844   0.37500   0.63157 1.0
O48      1 a   0.88156   0.37500   0.86843 1.0
Ni37     1 a   0.50000   0.50000   0.00000 1.0
Ni38     1 a   0.75000   0.50000   0.25000 1.0
Ni39     1 a   0.50000   0.62500   0.25000 1.0
O49      1 a   0.60666   0.50000   0.35667 1.0
O50      1 a   0.89334   0.50000   0.14333 1.0
O51      1 a   0.61844   0.62500   0.13157 1.0
O52      1 a   0.88156   0.62500   0.36843 1.0
Ni40     1 a   0.50000   0.50000   0.50000 1.0
Ni41     1 a   0.75000   0.50000   0.75000 1.0
Ni42     1 a   0.50000   0.62500   0.75000 1.0
O53      1 a   0.60666   0.50000   0.85667 1.0
O54      1 a   0.89334   0.50000   0.64333 1.0
O55      1 a   0.61844   0.62500   0.63157 1.0
O56      1 a   0.88156   0.62500   0.86843 1.0
Ni43     1 a   0.50000   0.75000   0.00000 1.0
Ni44     1 a   0.75000   0.75000   0.25000 1.0
Ni45     1 a   0.50000   0.87500   0.25000 1.0
O57      1 a   0.60666   0.75000   0.35667 1.0
O58      1 a   0.89334   0.75000   0.14333 1.0
O59      1 a   0.61844   0.87500   0.13157 1.0
O60      1 a   0.88156   0.87500   0.36843 1.0
Ni46     1 a   0.50000   0.75000   0.50000 1.0
Ni47     1 a   0.75000   0.75000   0.75000 1.0
Ni48     1 a   0.50000   0.87500   0.75000 1.0
O61      1 a   0.60666   0.75000   0.85667 1.0
O62      1 a   0.89334   0.75000   0.64333 1.0
O63      1 a   0.61844   0.87500   0.63157 1.0
O64      1 a   0.88156   0.87500   0.86843 1.0
