data_NiO2spinel.cif

_audit_creation_date               2023-03-23
_audit_creation_method             'generated by MedeA 3.2.1'

_chemical_formula_sum              'NiO2'

_symmetry_space_group_name_H-M     'P1'
_symmetry_Int_Tables_number        1

_cell_length_a                     7.94189
_cell_length_b                     7.94189
_cell_length_c                     7.94189
_cell_angle_alpha                  90.00
_cell_angle_beta                   90.00
_cell_angle_gamma                  90.00
_cell_volume                       500.92
_cell_formula_units_Z              16

loop_
_atom_site_label
_atom_site_symmetry_multiplicity
_atom_site_Wyckoff_symbol
_atom_site_fract_x
_atom_site_fract_y
_atom_site_fract_z
_atom_site_occupancy
Ni0      1 a   0.12500   0.62500   0.12500 1.0
Ni1      1 a   0.37500   0.87500   0.12500 1.0
Ni2      1 a   0.37500   0.62500   0.37500 1.0
Ni3      1 a   0.12500   0.87500   0.37500 1.0
Ni4      1 a   0.12500   0.12500   0.62500 1.0
Ni5      1 a   0.37500   0.37500   0.62500 1.0
Ni6      1 a   0.37500   0.12500   0.87500 1.0
Ni7      1 a   0.12500   0.37500   0.87500 1.0
Ni8      1 a   0.62500   0.62500   0.62500 1.0
Ni9      1 a   0.87500   0.87500   0.62500 1.0
Ni10     1 a   0.87500   0.62500   0.87500 1.0
Ni11     1 a   0.62500   0.87500   0.87500 1.0
Ni12     1 a   0.62500   0.12500   0.12500 1.0
Ni13     1 a   0.87500   0.37500   0.12500 1.0
Ni14     1 a   0.87500   0.12500   0.37500 1.0
Ni15     1 a   0.62500   0.37500   0.37500 1.0
O16      1 a   0.86079   0.13921   0.13921 1.0
O17      1 a   0.36079   0.86079   0.36079 1.0
O18      1 a   0.38921   0.11079   0.11079 1.0
O19      1 a   0.11079   0.11079   0.38921 1.0
O20      1 a   0.38921   0.38921   0.38921 1.0
O21      1 a   0.11079   0.38921   0.11079 1.0
O22      1 a   0.63921   0.13921   0.36079 1.0
O23      1 a   0.13921   0.86079   0.13921 1.0
O24      1 a   0.86079   0.63921   0.63921 1.0
O25      1 a   0.36079   0.36079   0.86079 1.0
O26      1 a   0.38921   0.61079   0.61079 1.0
O27      1 a   0.11079   0.61079   0.88921 1.0
O28      1 a   0.38921   0.88921   0.88921 1.0
O29      1 a   0.11079   0.88921   0.61079 1.0
O30      1 a   0.63921   0.63921   0.86079 1.0
O31      1 a   0.13921   0.36079   0.63921 1.0
O32      1 a   0.36079   0.13921   0.63921 1.0
O33      1 a   0.86079   0.86079   0.86079 1.0
O34      1 a   0.88921   0.11079   0.61079 1.0
O35      1 a   0.61079   0.11079   0.88921 1.0
O36      1 a   0.88921   0.38921   0.88921 1.0
O37      1 a   0.61079   0.38921   0.61079 1.0
O38      1 a   0.13921   0.13921   0.86079 1.0
O39      1 a   0.63921   0.86079   0.63921 1.0
O40      1 a   0.36079   0.63921   0.13921 1.0
O41      1 a   0.86079   0.36079   0.36079 1.0
O42      1 a   0.88921   0.61079   0.11079 1.0
O43      1 a   0.61079   0.61079   0.38921 1.0
O44      1 a   0.88921   0.88921   0.38921 1.0
O45      1 a   0.61079   0.88921   0.11079 1.0
O46      1 a   0.13921   0.63921   0.36079 1.0
O47      1 a   0.63921   0.36079   0.13921 1.0
