data_Ni2O3_CmCm.cif_3x1x1_1

_audit_creation_date               2023-03-23
_audit_creation_method             'generated by MedeA 3.2.1'

_chemical_formula_sum              'Ni2O3'

_symmetry_space_group_name_H-M     'P1'
_symmetry_Int_Tables_number        1

_cell_length_a                     8.70827
_cell_length_b                     9.70656
_cell_length_c                     14.57661
_cell_angle_alpha                  90.00
_cell_angle_beta                   90.00
_cell_angle_gamma                  90.00
_cell_volume                       1232.12
_cell_formula_units_Z              24

loop_
_atom_site_label
_atom_site_symmetry_multiplicity
_atom_site_Wyckoff_symbol
_atom_site_fract_x
_atom_site_fract_y
_atom_site_fract_z
_atom_site_occupancy
Ni1      1 a   0.00000   0.36336   0.04675 1.0
Ni2      1 a   0.16667   0.13664   0.95325 1.0
Ni3      1 a   0.00000   0.36336   0.45325 1.0
Ni4      1 a   0.16667   0.13664   0.54675 1.0
Ni5      1 a   0.16667   0.40602   0.63537 1.0
Ni6      1 a   0.00000   0.09398   0.36463 1.0
Ni7      1 a   0.00000   0.09398   0.13537 1.0
Ni8      1 a   0.16667   0.40602   0.86463 1.0
Ni9      1 a   0.16667   0.86336   0.04675 1.0
Ni10     1 a   0.00000   0.63664   0.95325 1.0
Ni11     1 a   0.16667   0.86336   0.45325 1.0
Ni12     1 a   0.00000   0.63664   0.54675 1.0
Ni13     1 a   0.00000   0.90602   0.63537 1.0
Ni14     1 a   0.16667   0.59398   0.36463 1.0
Ni15     1 a   0.16667   0.59398   0.13537 1.0
Ni16     1 a   0.00000   0.90602   0.86463 1.0
O1       1 a   0.00000   0.00000   0.50000 1.0
O2       1 a   0.00000   0.00000   0.00000 1.0
O3       1 a   0.16667   0.03175   0.84338 1.0
O4       1 a   0.00000   0.46825   0.15662 1.0
O5       1 a   0.00000   0.46825   0.34338 1.0
O6       1 a   0.16667   0.03175   0.65662 1.0
O7       1 a   0.00000   0.28027   0.92262 1.0
O8       1 a   0.16667   0.21973   0.07738 1.0
O9       1 a   0.16667   0.21973   0.42262 1.0
O10      1 a   0.00000   0.28027   0.57738 1.0
O11      1 a   0.16667   0.32529   0.75000 1.0
O12      1 a   0.00000   0.17471   0.25000 1.0
O13      1 a   0.16667   0.50000   0.50000 1.0
O14      1 a   0.16667   0.50000   0.00000 1.0
O15      1 a   0.00000   0.53175   0.84338 1.0
O16      1 a   0.16667   0.96825   0.15662 1.0
O17      1 a   0.16667   0.96825   0.34338 1.0
O18      1 a   0.00000   0.53175   0.65662 1.0
O19      1 a   0.16667   0.78027   0.92262 1.0
O20      1 a   0.00000   0.71973   0.07738 1.0
O21      1 a   0.00000   0.71973   0.42262 1.0
O22      1 a   0.16667   0.78027   0.57738 1.0
O23      1 a   0.00000   0.82529   0.75000 1.0
O24      1 a   0.16667   0.67471   0.25000 1.0
Ni17     1 a   0.33333   0.36336   0.04675 1.0
Ni18     1 a   0.50000   0.13664   0.95325 1.0
Ni19     1 a   0.33333   0.36336   0.45325 1.0
Ni20     1 a   0.50000   0.13664   0.54675 1.0
Ni21     1 a   0.50000   0.40602   0.63537 1.0
Ni22     1 a   0.33333   0.09398   0.36463 1.0
Ni23     1 a   0.33333   0.09398   0.13537 1.0
Ni24     1 a   0.50000   0.40602   0.86463 1.0
Ni25     1 a   0.50000   0.86336   0.04675 1.0
Ni26     1 a   0.33333   0.63664   0.95325 1.0
Ni27     1 a   0.50000   0.86336   0.45325 1.0
Ni28     1 a   0.33333   0.63664   0.54675 1.0
Ni29     1 a   0.33333   0.90602   0.63537 1.0
Ni30     1 a   0.50000   0.59398   0.36463 1.0
Ni31     1 a   0.50000   0.59398   0.13537 1.0
Ni32     1 a   0.33333   0.90602   0.86463 1.0
O25      1 a   0.33333   0.00000   0.50000 1.0
O26      1 a   0.33333   0.00000   0.00000 1.0
O27      1 a   0.50000   0.03175   0.84338 1.0
O28      1 a   0.33333   0.46825   0.15662 1.0
O29      1 a   0.33333   0.46825   0.34338 1.0
O30      1 a   0.50000   0.03175   0.65662 1.0
O31      1 a   0.33333   0.28027   0.92262 1.0
O32      1 a   0.50000   0.21973   0.07738 1.0
O33      1 a   0.50000   0.21973   0.42262 1.0
O34      1 a   0.33333   0.28027   0.57738 1.0
O35      1 a   0.50000   0.32529   0.75000 1.0
O36      1 a   0.33333   0.17471   0.25000 1.0
O37      1 a   0.50000   0.50000   0.50000 1.0
O38      1 a   0.50000   0.50000   0.00000 1.0
O39      1 a   0.33333   0.53175   0.84338 1.0
O40      1 a   0.50000   0.96825   0.15662 1.0
O41      1 a   0.50000   0.96825   0.34338 1.0
O42      1 a   0.33333   0.53175   0.65662 1.0
O43      1 a   0.50000   0.78027   0.92262 1.0
O44      1 a   0.33333   0.71973   0.07738 1.0
O45      1 a   0.33333   0.71973   0.42262 1.0
O46      1 a   0.50000   0.78027   0.57738 1.0
O47      1 a   0.33333   0.82529   0.75000 1.0
O48      1 a   0.50000   0.67471   0.25000 1.0
Ni33     1 a   0.66667   0.36336   0.04675 1.0
Ni34     1 a   0.83333   0.13664   0.95325 1.0
Ni35     1 a   0.66667   0.36336   0.45325 1.0
Ni36     1 a   0.83333   0.13664   0.54675 1.0
Ni37     1 a   0.83333   0.40602   0.63537 1.0
Ni38     1 a   0.66667   0.09398   0.36463 1.0
Ni39     1 a   0.66667   0.09398   0.13537 1.0
Ni40     1 a   0.83333   0.40602   0.86463 1.0
Ni41     1 a   0.83333   0.86336   0.04675 1.0
Ni42     1 a   0.66667   0.63664   0.95325 1.0
Ni43     1 a   0.83333   0.86336   0.45325 1.0
Ni44     1 a   0.66667   0.63664   0.54675 1.0
Ni45     1 a   0.66667   0.90602   0.63537 1.0
Ni46     1 a   0.83333   0.59398   0.36463 1.0
Ni47     1 a   0.83333   0.59398   0.13537 1.0
Ni48     1 a   0.66667   0.90602   0.86463 1.0
O49      1 a   0.66667   0.00000   0.50000 1.0
O50      1 a   0.66667   0.00000   0.00000 1.0
O51      1 a   0.83333   0.03175   0.84338 1.0
O52      1 a   0.66667   0.46825   0.15662 1.0
O53      1 a   0.66667   0.46825   0.34338 1.0
O54      1 a   0.83333   0.03175   0.65662 1.0
O55      1 a   0.66667   0.28027   0.92262 1.0
O56      1 a   0.83333   0.21973   0.07738 1.0
O57      1 a   0.83333   0.21973   0.42262 1.0
O58      1 a   0.66667   0.28027   0.57738 1.0
O59      1 a   0.83333   0.32529   0.75000 1.0
O60      1 a   0.66667   0.17471   0.25000 1.0
O61      1 a   0.83333   0.50000   0.50000 1.0
O62      1 a   0.83333   0.50000   0.00000 1.0
O63      1 a   0.66667   0.53175   0.84338 1.0
O64      1 a   0.83333   0.96825   0.15662 1.0
O65      1 a   0.83333   0.96825   0.34338 1.0
O66      1 a   0.66667   0.53175   0.65662 1.0
O67      1 a   0.83333   0.78027   0.92262 1.0
O68      1 a   0.66667   0.71973   0.07738 1.0
O69      1 a   0.66667   0.71973   0.42262 1.0
O70      1 a   0.83333   0.78027   0.57738 1.0
O71      1 a   0.66667   0.82529   0.75000 1.0
O72      1 a   0.83333   0.67471   0.25000 1.0
