data_(COD_#9016308)_1_3x3x2_1

_audit_creation_date               2023-03-23
_audit_creation_method             'generated by MedeA 3.2.1'

_chemical_formula_sum              'NiO2'

_symmetry_space_group_name_H-M     'P1'
_symmetry_Int_Tables_number        1

_cell_length_a                     8.36287
_cell_length_b                     8.36287
_cell_length_c                     9.25379
_cell_angle_alpha                  90.00
_cell_angle_beta                   90.00
_cell_angle_gamma                  120.00
_cell_volume                       560.48
_cell_formula_units_Z              18

loop_
_atom_site_label
_atom_site_symmetry_multiplicity
_atom_site_Wyckoff_symbol
_atom_site_fract_x
_atom_site_fract_y
_atom_site_fract_z
_atom_site_occupancy
Ni1      1 a   0.00000   0.00000   0.00000 1.0
O1       1 a   0.11111   0.22222   0.10103 1.0
O2       1 a   0.22222   0.11111   0.39897 1.0
Ni2      1 a   0.00000   0.00000   0.50000 1.0
O3       1 a   0.11111   0.22222   0.60103 1.0
O4       1 a   0.22222   0.11111   0.89897 1.0
Ni3      1 a   0.00000   0.33333   0.00000 1.0
O5       1 a   0.11111   0.55556   0.10103 1.0
O6       1 a   0.22222   0.44444   0.39897 1.0
Ni4      1 a   0.00000   0.33333   0.50000 1.0
O7       1 a   0.11111   0.55556   0.60103 1.0
O8       1 a   0.22222   0.44444   0.89897 1.0
Ni5      1 a   0.00000   0.66667   0.00000 1.0
O9       1 a   0.11111   0.88889   0.10103 1.0
O10      1 a   0.22222   0.77778   0.39897 1.0
Ni6      1 a   0.00000   0.66667   0.50000 1.0
O11      1 a   0.11111   0.88889   0.60103 1.0
O12      1 a   0.22222   0.77778   0.89897 1.0
Ni7      1 a   0.33333   0.00000   0.00000 1.0
O13      1 a   0.44444   0.22222   0.10103 1.0
O14      1 a   0.55556   0.11111   0.39897 1.0
Ni8      1 a   0.33333   0.00000   0.50000 1.0
O15      1 a   0.44444   0.22222   0.60103 1.0
O16      1 a   0.55556   0.11111   0.89897 1.0
Ni9      1 a   0.33333   0.33333   0.00000 1.0
O17      1 a   0.44444   0.55556   0.10103 1.0
O18      1 a   0.55556   0.44444   0.39897 1.0
Ni10     1 a   0.33333   0.33333   0.50000 1.0
O19      1 a   0.44444   0.55556   0.60103 1.0
O20      1 a   0.55556   0.44444   0.89897 1.0
Ni11     1 a   0.33333   0.66667   0.00000 1.0
O21      1 a   0.44444   0.88889   0.10103 1.0
O22      1 a   0.55556   0.77778   0.39897 1.0
Ni12     1 a   0.33333   0.66667   0.50000 1.0
O23      1 a   0.44444   0.88889   0.60103 1.0
O24      1 a   0.55556   0.77778   0.89897 1.0
Ni13     1 a   0.66667   0.00000   0.00000 1.0
O25      1 a   0.77778   0.22222   0.10103 1.0
O26      1 a   0.88889   0.11111   0.39897 1.0
Ni14     1 a   0.66667   0.00000   0.50000 1.0
O27      1 a   0.77778   0.22222   0.60103 1.0
O28      1 a   0.88889   0.11111   0.89897 1.0
Ni15     1 a   0.66667   0.33333   0.00000 1.0
O29      1 a   0.77778   0.55556   0.10103 1.0
O30      1 a   0.88889   0.44444   0.39897 1.0
Ni16     1 a   0.66667   0.33333   0.50000 1.0
O31      1 a   0.77778   0.55556   0.60103 1.0
O32      1 a   0.88889   0.44444   0.89897 1.0
Ni17     1 a   0.66667   0.66667   0.00000 1.0
O33      1 a   0.77778   0.88889   0.10103 1.0
O34      1 a   0.88889   0.77778   0.39897 1.0
Ni18     1 a   0.66667   0.66667   0.50000 1.0
O35      1 a   0.77778   0.88889   0.60103 1.0
O36      1 a   0.88889   0.77778   0.89897 1.0
