data_Ni2O3_cc.cif_1x2x2_1

_audit_creation_date               2023-03-23
_audit_creation_method             'generated by MedeA 3.2.1'

_chemical_formula_sum              'Ni2O3'

_symmetry_space_group_name_H-M     'P1'
_symmetry_Int_Tables_number        1

_cell_length_a                     9.46689
_cell_length_b                     11.14350
_cell_length_c                     11.97815
_cell_angle_alpha                  90.00
_cell_angle_beta                   123.09
_cell_angle_gamma                  90.00
_cell_volume                       1058.65
_cell_formula_units_Z              16

loop_
_atom_site_label
_atom_site_symmetry_multiplicity
_atom_site_Wyckoff_symbol
_atom_site_fract_x
_atom_site_fract_y
_atom_site_fract_z
_atom_site_occupancy
Ni1      1 a   0.91162   0.45328   0.25004 1.0
Ni2      1 a   0.75459   0.20815   0.25460 1.0
Ni3      1 a   0.41162   0.29672   0.00004 1.0
Ni4      1 a   0.25459   0.04185   0.00460 1.0
Ni5      1 a   0.41162   0.20328   0.25004 1.0
Ni6      1 a   0.25459   0.45815   0.25460 1.0
Ni7      1 a   0.91162   0.04672   0.00004 1.0
Ni8      1 a   0.75459   0.29185   0.00460 1.0
O1       1 a   0.80910   0.45115   0.06433 1.0
O2       1 a   0.12662   0.47724   0.06719 1.0
O3       1 a   0.43970   0.45151   0.05134 1.0
O4       1 a   0.80910   0.04885   0.31433 1.0
O5       1 a   0.62662   0.27276   0.31719 1.0
O6       1 a   0.93970   0.29849   0.30134 1.0
O7       1 a   0.30910   0.20115   0.06433 1.0
O8       1 a   0.62662   0.22724   0.06719 1.0
O9       1 a   0.93970   0.20151   0.05134 1.0
O10      1 a   0.30910   0.29885   0.31433 1.0
O11      1 a   0.12662   0.02276   0.31719 1.0
O12      1 a   0.43970   0.04849   0.30134 1.0
Ni9      1 a   0.91162   0.45328   0.75004 1.0
Ni10     1 a   0.75459   0.20815   0.75460 1.0
Ni11     1 a   0.41162   0.29672   0.50004 1.0
Ni12     1 a   0.25459   0.04185   0.50460 1.0
Ni13     1 a   0.41162   0.20328   0.75004 1.0
Ni14     1 a   0.25459   0.45815   0.75460 1.0
Ni15     1 a   0.91162   0.04672   0.50004 1.0
Ni16     1 a   0.75459   0.29185   0.50460 1.0
O13      1 a   0.80910   0.45115   0.56433 1.0
O14      1 a   0.12662   0.47724   0.56719 1.0
O15      1 a   0.43970   0.45151   0.55134 1.0
O16      1 a   0.80910   0.04885   0.81433 1.0
O17      1 a   0.62662   0.27276   0.81719 1.0
O18      1 a   0.93970   0.29849   0.80134 1.0
O19      1 a   0.30910   0.20115   0.56433 1.0
O20      1 a   0.62662   0.22724   0.56719 1.0
O21      1 a   0.93970   0.20151   0.55134 1.0
O22      1 a   0.30910   0.29885   0.81433 1.0
O23      1 a   0.12662   0.02276   0.81719 1.0
O24      1 a   0.43970   0.04849   0.80134 1.0
Ni17     1 a   0.91162   0.95328   0.25004 1.0
Ni18     1 a   0.75459   0.70815   0.25460 1.0
Ni19     1 a   0.41162   0.79672   0.00004 1.0
Ni20     1 a   0.25459   0.54185   0.00460 1.0
Ni21     1 a   0.41162   0.70328   0.25004 1.0
Ni22     1 a   0.25459   0.95815   0.25460 1.0
Ni23     1 a   0.91162   0.54672   0.00004 1.0
Ni24     1 a   0.75459   0.79185   0.00460 1.0
O25      1 a   0.80910   0.95115   0.06433 1.0
O26      1 a   0.12662   0.97724   0.06719 1.0
O27      1 a   0.43970   0.95151   0.05134 1.0
O28      1 a   0.80910   0.54885   0.31433 1.0
O29      1 a   0.62662   0.77276   0.31719 1.0
O30      1 a   0.93970   0.79849   0.30134 1.0
O31      1 a   0.30910   0.70115   0.06433 1.0
O32      1 a   0.62662   0.72724   0.06719 1.0
O33      1 a   0.93970   0.70151   0.05134 1.0
O34      1 a   0.30910   0.79885   0.31433 1.0
O35      1 a   0.12662   0.52276   0.31719 1.0
O36      1 a   0.43970   0.54849   0.30134 1.0
Ni25     1 a   0.91162   0.95328   0.75004 1.0
Ni26     1 a   0.75459   0.70815   0.75460 1.0
Ni27     1 a   0.41162   0.79672   0.50004 1.0
Ni28     1 a   0.25459   0.54185   0.50460 1.0
Ni29     1 a   0.41162   0.70328   0.75004 1.0
Ni30     1 a   0.25459   0.95815   0.75460 1.0
Ni31     1 a   0.91162   0.54672   0.50004 1.0
Ni32     1 a   0.75459   0.79185   0.50460 1.0
O37      1 a   0.80910   0.95115   0.56433 1.0
O38      1 a   0.12662   0.97724   0.56719 1.0
O39      1 a   0.43970   0.95151   0.55134 1.0
O40      1 a   0.80910   0.54885   0.81433 1.0
O41      1 a   0.62662   0.77276   0.81719 1.0
O42      1 a   0.93970   0.79849   0.80134 1.0
O43      1 a   0.30910   0.70115   0.56433 1.0
O44      1 a   0.62662   0.72724   0.56719 1.0
O45      1 a   0.93970   0.70151   0.55134 1.0
O46      1 a   0.30910   0.79885   0.81433 1.0
O47      1 a   0.12662   0.52276   0.81719 1.0
O48      1 a   0.43970   0.54849   0.80134 1.0
